<?xml version="1.0" encoding="iso-8859-1"?>
<configuration xmlns:xsi="http://www.w3.org/2001/XMLSchema-instance"
 xsi:noNamespaceSchemaLocation="http://sumo.sf.net/xsd/sumoConfiguration.xsd">
    <input>
        <net-file value="grid2.net.xml"/>
        <route-files value="grid2.rou.xml"/>
    </input>
    <time>
        <begin value="0"/>
        <end value="2400"/>
    </time>
    <time-to-teleport value="100"/>
    
<!--    <traci_server>
        <remote-port value="8813"/>
    </traci_server> -->
</configuration>