<?xml version="1.0" encoding="UTF-8"?>

<!-- generated on Fri Mar 15 11:01:43 2013 by SUMO netgen Version 0.15.0
<?xml version="1.0" encoding="UTF-8"?>

<configuration xmlns:xsi="http://www.w3.org/2001/XMLSchema-instance" xsi:noNamespaceSchemaLocation="http://sumo.sf.net/xsd/netgenConfiguration.xsd">

    <grid_network>
        <grid value="true"/>
        <grid.number value="3"/>
        <grid.length value="200"/>
    </grid_network>

    <output>
        <output-file value="grid2.net.xml"/>
    </output>

    <processing>
        <no-turnarounds value="true"/>
    </processing>

    <building_defaults>
        <default.lanenumber value="1"/>
        <default-junction-type value="traffic_light"/>
    </building_defaults>

</configuration>
-->

<net version="0.13" xmlns:xsi="http://www.w3.org/2001/XMLSchema-instance" xsi:noNamespaceSchemaLocation="http://sumo.sf.net/xsd/net_file.xsd">

    <location netOffset="0.00,0.00" convBoundary="0.00,0.00,400.00,400.00" origBoundary="0.00,0.00,400.00,400.00" projParameter="!"/>

    <edge id=":0/0_0" function="internal">
        <lane id=":0/0_0_0" index="0" speed="13.90" length="7.90" shape="-1.65,3.25 -1.34,1.11 -0.42,-0.43 1.11,-1.34 3.25,-1.65"/>
    </edge>
    <edge id=":0/0_1" function="internal">
        <lane id=":0/0_1_0" index="0" speed="13.90" length="2.58" shape="3.25,1.65 2.55,1.75 2.05,2.05 1.75,2.55 1.65,3.25"/>
    </edge>
    <edge id=":0/1_0" function="internal">
        <lane id=":0/1_0_0" index="0" speed="13.90" length="9.50" shape="-1.65,204.75 -1.65,195.25"/>
    </edge>
    <edge id=":0/1_1" function="internal">
        <lane id=":0/1_1_0" index="0" speed="13.90" length="7.14" shape="-1.65,204.75 -1.25,201.95 -0.05,199.95 1.65,198.93"/>
    </edge>
    <edge id=":0/1_6" function="internal">
        <lane id=":0/1_6_0" index="0" speed="13.90" length="3.18" shape="1.65,198.93 1.95,198.75 4.75,198.35"/>
    </edge>
    <edge id=":0/1_2" function="internal">
        <lane id=":0/1_2_0" index="0" speed="13.90" length="5.00" shape="4.75,201.65 3.39,201.84 2.43,202.43 1.84,203.39 1.65,204.75"/>
    </edge>
    <edge id=":0/1_3" function="internal">
        <lane id=":0/1_3_0" index="0" speed="13.90" length="3.18" shape="4.75,201.65 1.95,201.25 1.65,201.07"/>
    </edge>
    <edge id=":0/1_7" function="internal">
        <lane id=":0/1_7_0" index="0" speed="13.90" length="7.14" shape="1.65,201.07 -0.05,200.05 -1.25,198.05 -1.65,195.25"/>
    </edge>
    <edge id=":0/1_4" function="internal">
        <lane id=":0/1_4_0" index="0" speed="13.90" length="5.00" shape="1.65,195.25 1.84,196.61 2.42,197.57 3.39,198.16 4.75,198.35"/>
    </edge>
    <edge id=":0/1_5" function="internal">
        <lane id=":0/1_5_0" index="0" speed="13.90" length="9.50" shape="1.65,195.25 1.65,204.75"/>
    </edge>
    <edge id=":0/2_0" function="internal">
        <lane id=":0/2_0_0" index="0" speed="13.90" length="7.90" shape="3.25,401.65 1.11,401.34 -0.43,400.42 -1.34,398.89 -1.65,396.75"/>
    </edge>
    <edge id=":0/2_1" function="internal">
        <lane id=":0/2_1_0" index="0" speed="13.90" length="2.58" shape="1.65,396.75 1.75,397.45 2.05,397.95 2.55,398.25 3.25,398.35"/>
    </edge>
    <edge id=":1/0_0" function="internal">
        <lane id=":1/0_0_0" index="0" speed="13.90" length="5.00" shape="198.35,4.75 198.16,3.39 197.57,2.43 196.61,1.84 195.25,1.65"/>
    </edge>
    <edge id=":1/0_1" function="internal">
        <lane id=":1/0_1_0" index="0" speed="13.90" length="3.18" shape="198.35,4.75 198.75,1.95 198.93,1.65"/>
    </edge>
    <edge id=":1/0_6" function="internal">
        <lane id=":1/0_6_0" index="0" speed="13.90" length="7.14" shape="198.93,1.65 199.95,-0.05 201.95,-1.25 204.75,-1.65"/>
    </edge>
    <edge id=":1/0_2" function="internal">
        <lane id=":1/0_2_0" index="0" speed="13.90" length="5.00" shape="204.75,1.65 203.39,1.84 202.43,2.42 201.84,3.39 201.65,4.75"/>
    </edge>
    <edge id=":1/0_3" function="internal">
        <lane id=":1/0_3_0" index="0" speed="13.90" length="9.50" shape="204.75,1.65 195.25,1.65"/>
    </edge>
    <edge id=":1/0_4" function="internal">
        <lane id=":1/0_4_0" index="0" speed="13.90" length="9.50" shape="195.25,-1.65 204.75,-1.65"/>
    </edge>
    <edge id=":1/0_5" function="internal">
        <lane id=":1/0_5_0" index="0" speed="13.90" length="7.14" shape="195.25,-1.65 198.05,-1.25 200.05,-0.05 201.07,1.65"/>
    </edge>
    <edge id=":1/0_7" function="internal">
        <lane id=":1/0_7_0" index="0" speed="13.90" length="3.18" shape="201.07,1.65 201.25,1.95 201.65,4.75"/>
    </edge>
    <edge id=":1/1_0" function="internal">
        <lane id=":1/1_0_0" index="0" speed="13.90" length="5.00" shape="198.35,204.75 198.16,203.39 197.57,202.42 196.61,201.84 195.25,201.65"/>
    </edge>
    <edge id=":1/1_1" function="internal">
        <lane id=":1/1_1_0" index="0" speed="13.90" length="9.50" shape="198.35,204.75 198.35,195.25"/>
    </edge>
    <edge id=":1/1_2" function="internal">
        <lane id=":1/1_2_0" index="0" speed="13.90" length="3.18" shape="198.35,204.75 198.75,201.95 198.93,201.65"/>
    </edge>
    <edge id=":1/1_12" function="internal">
        <lane id=":1/1_12_0" index="0" speed="13.90" length="7.14" shape="198.93,201.65 199.95,199.95 201.95,198.75 204.75,198.35"/>
    </edge>
    <edge id=":1/1_3" function="internal">
        <lane id=":1/1_3_0" index="0" speed="13.90" length="5.00" shape="204.75,201.65 203.39,201.84 202.42,202.43 201.84,203.39 201.65,204.75"/>
    </edge>
    <edge id=":1/1_4" function="internal">
        <lane id=":1/1_4_0" index="0" speed="13.90" length="9.50" shape="204.75,201.65 195.25,201.65"/>
    </edge>
    <edge id=":1/1_5" function="internal">
        <lane id=":1/1_5_0" index="0" speed="13.90" length="3.18" shape="204.75,201.65 201.95,201.25 201.65,201.07"/>
    </edge>
    <edge id=":1/1_13" function="internal">
        <lane id=":1/1_13_0" index="0" speed="13.90" length="7.14" shape="201.65,201.07 199.95,200.05 198.75,198.05 198.35,195.25"/>
    </edge>
    <edge id=":1/1_6" function="internal">
        <lane id=":1/1_6_0" index="0" speed="13.90" length="5.00" shape="201.65,195.25 201.84,196.61 202.43,197.58 203.39,198.16 204.75,198.35"/>
    </edge>
    <edge id=":1/1_7" function="internal">
        <lane id=":1/1_7_0" index="0" speed="13.90" length="9.50" shape="201.65,195.25 201.65,204.75"/>
    </edge>
    <edge id=":1/1_8" function="internal">
        <lane id=":1/1_8_0" index="0" speed="13.90" length="3.18" shape="201.65,195.25 201.25,198.05 201.07,198.35"/>
    </edge>
    <edge id=":1/1_14" function="internal">
        <lane id=":1/1_14_0" index="0" speed="13.90" length="7.14" shape="201.07,198.35 200.05,200.05 198.05,201.25 195.25,201.65"/>
    </edge>
    <edge id=":1/1_9" function="internal">
        <lane id=":1/1_9_0" index="0" speed="13.90" length="5.00" shape="195.25,198.35 196.61,198.16 197.58,197.57 198.16,196.61 198.35,195.25"/>
    </edge>
    <edge id=":1/1_10" function="internal">
        <lane id=":1/1_10_0" index="0" speed="13.90" length="9.50" shape="195.25,198.35 204.75,198.35"/>
    </edge>
    <edge id=":1/1_11" function="internal">
        <lane id=":1/1_11_0" index="0" speed="13.90" length="3.18" shape="195.25,198.35 198.05,198.75 198.35,198.93"/>
    </edge>
    <edge id=":1/1_15" function="internal">
        <lane id=":1/1_15_0" index="0" speed="13.90" length="7.14" shape="198.35,198.93 200.05,199.95 201.25,201.95 201.65,204.75"/>
    </edge>
    <edge id=":1/2_0" function="internal">
        <lane id=":1/2_0_0" index="0" speed="13.90" length="9.50" shape="204.75,401.65 195.25,401.65"/>
    </edge>
    <edge id=":1/2_1" function="internal">
        <lane id=":1/2_1_0" index="0" speed="13.90" length="7.14" shape="204.75,401.65 201.95,401.25 199.95,400.05 198.93,398.35"/>
    </edge>
    <edge id=":1/2_6" function="internal">
        <lane id=":1/2_6_0" index="0" speed="13.90" length="3.18" shape="198.93,398.35 198.75,398.05 198.35,395.25"/>
    </edge>
    <edge id=":1/2_2" function="internal">
        <lane id=":1/2_2_0" index="0" speed="13.90" length="5.00" shape="201.65,395.25 201.84,396.61 202.43,397.58 203.39,398.16 204.75,398.35"/>
    </edge>
    <edge id=":1/2_3" function="internal">
        <lane id=":1/2_3_0" index="0" speed="13.90" length="3.18" shape="201.65,395.25 201.25,398.05 201.07,398.35"/>
    </edge>
    <edge id=":1/2_7" function="internal">
        <lane id=":1/2_7_0" index="0" speed="13.90" length="7.14" shape="201.07,398.35 200.05,400.05 198.05,401.25 195.25,401.65"/>
    </edge>
    <edge id=":1/2_4" function="internal">
        <lane id=":1/2_4_0" index="0" speed="13.90" length="5.00" shape="195.25,398.35 196.61,398.16 197.57,397.58 198.16,396.61 198.35,395.25"/>
    </edge>
    <edge id=":1/2_5" function="internal">
        <lane id=":1/2_5_0" index="0" speed="13.90" length="9.50" shape="195.25,398.35 204.75,398.35"/>
    </edge>
    <edge id=":2/0_0" function="internal">
        <lane id=":2/0_0_0" index="0" speed="13.90" length="2.58" shape="398.35,3.25 398.25,2.55 397.95,2.05 397.45,1.75 396.75,1.65"/>
    </edge>
    <edge id=":2/0_1" function="internal">
        <lane id=":2/0_1_0" index="0" speed="13.90" length="7.90" shape="396.75,-1.65 398.89,-1.34 400.42,-0.42 401.34,1.11 401.65,3.25"/>
    </edge>
    <edge id=":2/1_0" function="internal">
        <lane id=":2/1_0_0" index="0" speed="13.90" length="5.00" shape="398.35,204.75 398.16,203.39 397.58,202.43 396.61,201.84 395.25,201.65"/>
    </edge>
    <edge id=":2/1_1" function="internal">
        <lane id=":2/1_1_0" index="0" speed="13.90" length="9.50" shape="398.35,204.75 398.35,195.25"/>
    </edge>
    <edge id=":2/1_2" function="internal">
        <lane id=":2/1_2_0" index="0" speed="13.90" length="9.50" shape="401.65,195.25 401.65,204.75"/>
    </edge>
    <edge id=":2/1_3" function="internal">
        <lane id=":2/1_3_0" index="0" speed="13.90" length="7.14" shape="401.65,195.25 401.25,198.05 400.05,200.05 398.35,201.07"/>
    </edge>
    <edge id=":2/1_6" function="internal">
        <lane id=":2/1_6_0" index="0" speed="13.90" length="3.18" shape="398.35,201.07 398.05,201.25 395.25,201.65"/>
    </edge>
    <edge id=":2/1_4" function="internal">
        <lane id=":2/1_4_0" index="0" speed="13.90" length="5.00" shape="395.25,198.35 396.61,198.16 397.58,197.57 398.16,196.61 398.35,195.25"/>
    </edge>
    <edge id=":2/1_5" function="internal">
        <lane id=":2/1_5_0" index="0" speed="13.90" length="3.18" shape="395.25,198.35 398.05,198.75 398.35,198.93"/>
    </edge>
    <edge id=":2/1_7" function="internal">
        <lane id=":2/1_7_0" index="0" speed="13.90" length="7.14" shape="398.35,198.93 400.05,199.95 401.25,201.95 401.65,204.75"/>
    </edge>
    <edge id=":2/2_0" function="internal">
        <lane id=":2/2_0_0" index="0" speed="13.90" length="7.90" shape="401.65,396.75 401.34,398.89 400.42,400.42 398.89,401.34 396.75,401.65"/>
    </edge>
    <edge id=":2/2_1" function="internal">
        <lane id=":2/2_1_0" index="0" speed="13.90" length="2.58" shape="396.75,398.35 397.45,398.25 397.95,397.95 398.25,397.45 398.35,396.75"/>
    </edge>

    <edge id="0/0to0/1" from="0/0" to="0/1" priority="-1">
        <lane id="0/0to0/1_0" index="0" speed="13.90" length="192.00" shape="1.65,3.25 1.65,195.25"/>
    </edge>
    <edge id="0/0to1/0" from="0/0" to="1/0" priority="-1">
        <lane id="0/0to1/0_0" index="0" speed="13.90" length="192.00" shape="3.25,-1.65 195.25,-1.65"/>
    </edge>
    <edge id="0/1to0/0" from="0/1" to="0/0" priority="-1">
        <lane id="0/1to0/0_0" index="0" speed="13.90" length="192.00" shape="-1.65,195.25 -1.65,3.25"/>
    </edge>
    <edge id="0/1to0/2" from="0/1" to="0/2" priority="-1">
        <lane id="0/1to0/2_0" index="0" speed="13.90" length="192.00" shape="1.65,204.75 1.65,396.75"/>
    </edge>
    <edge id="0/1to1/1" from="0/1" to="1/1" priority="-1">
        <lane id="0/1to1/1_0" index="0" speed="13.90" length="190.50" shape="4.75,198.35 195.25,198.35"/>
    </edge>
    <edge id="0/2to0/1" from="0/2" to="0/1" priority="-1">
        <lane id="0/2to0/1_0" index="0" speed="13.90" length="192.00" shape="-1.65,396.75 -1.65,204.75"/>
    </edge>
    <edge id="0/2to1/2" from="0/2" to="1/2" priority="-1">
        <lane id="0/2to1/2_0" index="0" speed="13.90" length="192.00" shape="3.25,398.35 195.25,398.35"/>
    </edge>
    <edge id="1/0to0/0" from="1/0" to="0/0" priority="-1">
        <lane id="1/0to0/0_0" index="0" speed="13.90" length="192.00" shape="195.25,1.65 3.25,1.65"/>
    </edge>
    <edge id="1/0to1/1" from="1/0" to="1/1" priority="-1">
        <lane id="1/0to1/1_0" index="0" speed="13.90" length="190.50" shape="201.65,4.75 201.65,195.25"/>
    </edge>
    <edge id="1/0to2/0" from="1/0" to="2/0" priority="-1">
        <lane id="1/0to2/0_0" index="0" speed="13.90" length="192.00" shape="204.75,-1.65 396.75,-1.65"/>
    </edge>
    <edge id="1/1to0/1" from="1/1" to="0/1" priority="-1">
        <lane id="1/1to0/1_0" index="0" speed="13.90" length="190.50" shape="195.25,201.65 4.75,201.65"/>
    </edge>
    <edge id="1/1to1/0" from="1/1" to="1/0" priority="-1">
        <lane id="1/1to1/0_0" index="0" speed="13.90" length="190.50" shape="198.35,195.25 198.35,4.75"/>
    </edge>
    <edge id="1/1to1/2" from="1/1" to="1/2" priority="-1">
        <lane id="1/1to1/2_0" index="0" speed="13.90" length="190.50" shape="201.65,204.75 201.65,395.25"/>
    </edge>
    <edge id="1/1to2/1" from="1/1" to="2/1" priority="-1">
        <lane id="1/1to2/1_0" index="0" speed="13.90" length="190.50" shape="204.75,198.35 395.25,198.35"/>
    </edge>
    <edge id="1/2to0/2" from="1/2" to="0/2" priority="-1">
        <lane id="1/2to0/2_0" index="0" speed="13.90" length="192.00" shape="195.25,401.65 3.25,401.65"/>
    </edge>
    <edge id="1/2to1/1" from="1/2" to="1/1" priority="-1">
        <lane id="1/2to1/1_0" index="0" speed="13.90" length="190.50" shape="198.35,395.25 198.35,204.75"/>
    </edge>
    <edge id="1/2to2/2" from="1/2" to="2/2" priority="-1">
        <lane id="1/2to2/2_0" index="0" speed="13.90" length="192.00" shape="204.75,398.35 396.75,398.35"/>
    </edge>
    <edge id="2/0to1/0" from="2/0" to="1/0" priority="-1">
        <lane id="2/0to1/0_0" index="0" speed="13.90" length="192.00" shape="396.75,1.65 204.75,1.65"/>
    </edge>
    <edge id="2/0to2/1" from="2/0" to="2/1" priority="-1">
        <lane id="2/0to2/1_0" index="0" speed="13.90" length="192.00" shape="401.65,3.25 401.65,195.25"/>
    </edge>
    <edge id="2/1to1/1" from="2/1" to="1/1" priority="-1">
        <lane id="2/1to1/1_0" index="0" speed="13.90" length="190.50" shape="395.25,201.65 204.75,201.65"/>
    </edge>
    <edge id="2/1to2/0" from="2/1" to="2/0" priority="-1">
        <lane id="2/1to2/0_0" index="0" speed="13.90" length="192.00" shape="398.35,195.25 398.35,3.25"/>
    </edge>
    <edge id="2/1to2/2" from="2/1" to="2/2" priority="-1">
        <lane id="2/1to2/2_0" index="0" speed="13.90" length="192.00" shape="401.65,204.75 401.65,396.75"/>
    </edge>
    <edge id="2/2to1/2" from="2/2" to="1/2" priority="-1">
        <lane id="2/2to1/2_0" index="0" speed="13.90" length="192.00" shape="396.75,401.65 204.75,401.65"/>
    </edge>
    <edge id="2/2to2/1" from="2/2" to="2/1" priority="-1">
        <lane id="2/2to2/1_0" index="0" speed="13.90" length="192.00" shape="398.35,396.75 398.35,204.75"/>
    </edge>

    <tlLogic id="0/0" type="static" programID="0" offset="0">
        <phase duration="31" state="GG"/>
        <phase duration="4" state="yy"/>
        <phase duration="31" state="GG"/>
        <phase duration="4" state="yy"/>
    </tlLogic>
    <tlLogic id="0/1" type="static" programID="0" offset="0">
        <phase duration="31" state="GgrrGG"/>
        <phase duration="4" state="ygrryy"/>
        <phase duration="6" state="rGrrrr"/>
        <phase duration="4" state="ryrrrr"/>
        <phase duration="31" state="rrGGGr"/>
        <phase duration="4" state="rryyyr"/>
    </tlLogic>
    <tlLogic id="0/2" type="static" programID="0" offset="0">
        <phase duration="31" state="GG"/>
        <phase duration="4" state="yy"/>
        <phase duration="31" state="GG"/>
        <phase duration="4" state="yy"/>
    </tlLogic>
    <tlLogic id="1/0" type="static" programID="0" offset="0">
        <phase duration="31" state="rrGGGg"/>
        <phase duration="4" state="rryyyg"/>
        <phase duration="6" state="rrrrrG"/>
        <phase duration="4" state="rrrrry"/>
        <phase duration="31" state="GGGrrr"/>
        <phase duration="4" state="yyyrrr"/>
    </tlLogic>
    <tlLogic id="1/1" type="static" programID="0" offset="0">
        <phase duration="31" state="GGgrrrGGgrrr"/>
        <phase duration="4" state="yygrrryygrrr"/>
        <phase duration="6" state="rrGrrrrrGrrr"/>
        <phase duration="4" state="rryrrrrryrrr"/>
        <phase duration="31" state="rrrGGgrrrGGg"/>
        <phase duration="4" state="rrryygrrryyg"/>
        <phase duration="6" state="rrrrrGrrrrrG"/>
        <phase duration="4" state="rrrrryrrrrry"/>
    </tlLogic>
    <tlLogic id="1/2" type="static" programID="0" offset="0">
        <phase duration="31" state="GgrrGG"/>
        <phase duration="4" state="ygrryy"/>
        <phase duration="6" state="rGrrrr"/>
        <phase duration="4" state="ryrrrr"/>
        <phase duration="31" state="rrGGGr"/>
        <phase duration="4" state="rryyyr"/>
    </tlLogic>
    <tlLogic id="2/0" type="static" programID="0" offset="0">
        <phase duration="31" state="GG"/>
        <phase duration="4" state="yy"/>
        <phase duration="31" state="GG"/>
        <phase duration="4" state="yy"/>
    </tlLogic>
    <tlLogic id="2/1" type="static" programID="0" offset="0">
        <phase duration="31" state="GGGgrr"/>
        <phase duration="4" state="yyygrr"/>
        <phase duration="6" state="rrrGrr"/>
        <phase duration="4" state="rrryrr"/>
        <phase duration="31" state="GrrrGG"/>
        <phase duration="4" state="yrrryy"/>
    </tlLogic>
    <tlLogic id="2/2" type="static" programID="0" offset="0">
        <phase duration="31" state="GG"/>
        <phase duration="4" state="yy"/>
        <phase duration="31" state="GG"/>
        <phase duration="4" state="yy"/>
    </tlLogic>

    <junction id="0/0" type="traffic_light" x="0.00" y="0.00" incLanes="0/1to0/0_0 1/0to0/0_0" intLanes=":0/0_0_0 :0/0_1_0" shape="-3.25,3.25 3.25,3.25 3.25,-3.25">
        <request index="0" response="00" foes="00" cont="0"/>
        <request index="1" response="00" foes="00" cont="0"/>
    </junction>
    <junction id="0/1" type="traffic_light" x="0.00" y="200.00" incLanes="0/2to0/1_0 1/1to0/1_0 0/0to0/1_0" intLanes=":0/1_0_0 :0/1_6_0 :0/1_2_0 :0/1_7_0 :0/1_4_0 :0/1_5_0" shape="-3.25,204.75 3.25,204.75 4.75,203.25 4.75,196.75 3.25,195.25 -3.25,195.25">
        <request index="0" response="000000" foes="001000" cont="0"/>
        <request index="1" response="110000" foes="111000" cont="1"/>
        <request index="2" response="100000" foes="100000" cont="0"/>
        <request index="3" response="100011" foes="100011" cont="1"/>
        <request index="4" response="000000" foes="000010" cont="0"/>
        <request index="5" response="000000" foes="001110" cont="0"/>
    </junction>
    <junction id="0/2" type="traffic_light" x="0.00" y="400.00" incLanes="1/2to0/2_0 0/1to0/2_0" intLanes=":0/2_0_0 :0/2_1_0" shape="3.25,403.25 3.25,396.75 -3.25,396.75">
        <request index="0" response="00" foes="00" cont="0"/>
        <request index="1" response="00" foes="00" cont="0"/>
    </junction>
    <junction id="1/0" type="traffic_light" x="200.00" y="0.00" incLanes="1/1to1/0_0 2/0to1/0_0 0/0to1/0_0" intLanes=":1/0_0_0 :1/0_6_0 :1/0_2_0 :1/0_3_0 :1/0_4_0 :1/0_7_0" shape="196.75,4.75 203.25,4.75 204.75,3.25 204.75,-3.25 195.25,-3.25 195.25,3.25">
        <request index="0" response="001000" foes="001000" cont="0"/>
        <request index="1" response="111000" foes="111000" cont="1"/>
        <request index="2" response="000000" foes="100000" cont="0"/>
        <request index="3" response="000000" foes="100011" cont="0"/>
        <request index="4" response="000000" foes="000010" cont="0"/>
        <request index="5" response="001100" foes="001110" cont="1"/>
    </junction>
    <junction id="1/1" type="traffic_light" x="200.00" y="200.00" incLanes="1/2to1/1_0 2/1to1/1_0 1/0to1/1_0 0/1to1/1_0" intLanes=":1/1_0_0 :1/1_1_0 :1/1_12_0 :1/1_3_0 :1/1_4_0 :1/1_13_0 :1/1_6_0 :1/1_7_0 :1/1_14_0 :1/1_9_0 :1/1_10_0 :1/1_15_0" shape="196.75,204.75 203.25,204.75 204.75,203.25 204.75,196.75 203.25,195.25 196.75,195.25 195.25,196.75 195.25,203.25">
        <request index="0" response="000000000000" foes="000100010000" cont="0"/>
        <request index="1" response="000000000000" foes="111100110000" cont="0"/>
        <request index="2" response="000011000000" foes="110011110000" cont="1"/>
        <request index="3" response="000010000000" foes="100010000000" cont="0"/>
        <request index="4" response="000110000111" foes="100110000111" cont="0"/>
        <request index="5" response="011110000110" foes="011110000110" cont="1"/>
        <request index="6" response="000000000000" foes="010000000100" cont="0"/>
        <request index="7" response="000000000000" foes="110000111100" cont="0"/>
        <request index="8" response="000000000011" foes="110000110011" cont="1"/>
        <request index="9" response="000000000010" foes="000000100010" cont="0"/>
        <request index="10" response="000111000110" foes="000111100110" cont="0"/>
        <request index="11" response="000110011110" foes="000110011110" cont="1"/>
    </junction>
    <junction id="1/2" type="traffic_light" x="200.00" y="400.00" incLanes="2/2to1/2_0 1/1to1/2_0 0/2to1/2_0" intLanes=":1/2_0_0 :1/2_6_0 :1/2_2_0 :1/2_7_0 :1/2_4_0 :1/2_5_0" shape="204.75,403.25 204.75,396.75 203.25,395.25 196.75,395.25 195.25,396.75 195.25,403.25">
        <request index="0" response="000000" foes="001000" cont="0"/>
        <request index="1" response="110000" foes="111000" cont="1"/>
        <request index="2" response="100000" foes="100000" cont="0"/>
        <request index="3" response="100011" foes="100011" cont="1"/>
        <request index="4" response="000000" foes="000010" cont="0"/>
        <request index="5" response="000000" foes="001110" cont="0"/>
    </junction>
    <junction id="2/0" type="traffic_light" x="400.00" y="0.00" incLanes="2/1to2/0_0 1/0to2/0_0" intLanes=":2/0_0_0 :2/0_1_0" shape="396.75,3.25 403.25,3.25 396.75,-3.25 396.75,3.25">
        <request index="0" response="00" foes="00" cont="0"/>
        <request index="1" response="00" foes="00" cont="0"/>
    </junction>
    <junction id="2/1" type="traffic_light" x="400.00" y="200.00" incLanes="2/2to2/1_0 2/0to2/1_0 1/1to2/1_0" intLanes=":2/1_0_0 :2/1_1_0 :2/1_2_0 :2/1_6_0 :2/1_4_0 :2/1_7_0" shape="396.75,204.75 403.25,204.75 403.25,195.25 396.75,195.25 395.25,196.75 395.25,203.25">
        <request index="0" response="000000" foes="001000" cont="0"/>
        <request index="1" response="000000" foes="111000" cont="0"/>
        <request index="2" response="000000" foes="100000" cont="0"/>
        <request index="3" response="000011" foes="100011" cont="1"/>
        <request index="4" response="000010" foes="000010" cont="0"/>
        <request index="5" response="001110" foes="001110" cont="1"/>
    </junction>
    <junction id="2/2" type="traffic_light" x="400.00" y="400.00" incLanes="2/1to2/2_0 1/2to2/2_0" intLanes=":2/2_0_0 :2/2_1_0" shape="403.25,396.75 396.75,396.75 396.75,403.25">
        <request index="0" response="00" foes="00" cont="0"/>
        <request index="1" response="00" foes="00" cont="0"/>
    </junction>

    <junction id=":0/1_6_0" type="internal" x="1.65" y="198.93" incLanes=":0/1_1_0 0/0to0/1_0" intLanes=":0/1_3_0 :0/1_4_0 :0/1_5_0"/>
    <junction id=":0/1_7_0" type="internal" x="1.65" y="201.07" incLanes=":0/1_3_0 0/2to0/1_0" intLanes=":0/1_0_0 :0/1_1_0 :0/1_5_0"/>
    <junction id=":1/0_6_0" type="internal" x="198.93" y="1.65" incLanes=":1/0_1_0 2/0to1/0_0" intLanes=":1/0_3_0 :1/0_4_0 :1/0_5_0"/>
    <junction id=":1/0_7_0" type="internal" x="201.07" y="1.65" incLanes=":1/0_5_0 2/0to1/0_0" intLanes=":1/0_1_0 :1/0_2_0 :1/0_3_0"/>
    <junction id=":1/1_12_0" type="internal" x="198.93" y="201.65" incLanes=":1/1_2_0 1/0to1/1_0" intLanes=":1/1_4_0 :1/1_5_0 :1/1_6_0 :1/1_7_0 :1/1_10_0 :1/1_11_0"/>
    <junction id=":1/1_13_0" type="internal" x="201.65" y="201.07" incLanes=":1/1_5_0 0/1to1/1_0" intLanes=":1/1_1_0 :1/1_2_0 :1/1_7_0 :1/1_8_0 :1/1_9_0 :1/1_10_0"/>
    <junction id=":1/1_14_0" type="internal" x="201.07" y="198.35" incLanes=":1/1_8_0 1/2to1/1_0" intLanes=":1/1_0_0 :1/1_1_0 :1/1_4_0 :1/1_5_0 :1/1_10_0 :1/1_11_0"/>
    <junction id=":1/1_15_0" type="internal" x="198.35" y="198.93" incLanes=":1/1_11_0 2/1to1/1_0" intLanes=":1/1_1_0 :1/1_2_0 :1/1_3_0 :1/1_4_0 :1/1_7_0 :1/1_8_0"/>
    <junction id=":1/2_6_0" type="internal" x="198.93" y="398.35" incLanes=":1/2_1_0 0/2to1/2_0" intLanes=":1/2_3_0 :1/2_4_0 :1/2_5_0"/>
    <junction id=":1/2_7_0" type="internal" x="201.07" y="398.35" incLanes=":1/2_3_0 2/2to1/2_0" intLanes=":1/2_0_0 :1/2_1_0 :1/2_5_0"/>
    <junction id=":2/1_6_0" type="internal" x="398.35" y="201.07" incLanes=":2/1_3_0 2/2to2/1_0" intLanes=":2/1_0_0 :2/1_1_0 :2/1_5_0"/>
    <junction id=":2/1_7_0" type="internal" x="398.35" y="198.93" incLanes=":2/1_5_0 2/2to2/1_0" intLanes=":2/1_1_0 :2/1_2_0 :2/1_3_0"/>

    <connection from="0/0to0/1" to="0/1to1/1" fromLane="0" toLane="0" via=":0/1_4_0" tl="0/1" linkIndex="4" dir="r" state="o"/>
    <connection from="0/0to0/1" to="0/1to0/2" fromLane="0" toLane="0" via=":0/1_5_0" tl="0/1" linkIndex="5" dir="s" state="o"/>
    <connection from="0/0to1/0" to="1/0to2/0" fromLane="0" toLane="0" via=":1/0_4_0" tl="1/0" linkIndex="4" dir="s" state="o"/>
    <connection from="0/0to1/0" to="1/0to1/1" fromLane="0" toLane="0" via=":1/0_5_0" tl="1/0" linkIndex="5" dir="l" state="o"/>
    <connection from="0/1to0/0" to="0/0to1/0" fromLane="0" toLane="0" via=":0/0_0_0" tl="0/0" linkIndex="0" dir="l" state="o"/>
    <connection from="0/1to0/2" to="0/2to1/2" fromLane="0" toLane="0" via=":0/2_1_0" tl="0/2" linkIndex="1" dir="r" state="o"/>
    <connection from="0/1to1/1" to="1/1to1/0" fromLane="0" toLane="0" via=":1/1_9_0" tl="1/1" linkIndex="9" dir="r" state="o"/>
    <connection from="0/1to1/1" to="1/1to2/1" fromLane="0" toLane="0" via=":1/1_10_0" tl="1/1" linkIndex="10" dir="s" state="o"/>
    <connection from="0/1to1/1" to="1/1to1/2" fromLane="0" toLane="0" via=":1/1_11_0" tl="1/1" linkIndex="11" dir="l" state="o"/>
    <connection from="0/2to0/1" to="0/1to0/0" fromLane="0" toLane="0" via=":0/1_0_0" tl="0/1" linkIndex="0" dir="s" state="o"/>
    <connection from="0/2to0/1" to="0/1to1/1" fromLane="0" toLane="0" via=":0/1_1_0" tl="0/1" linkIndex="1" dir="l" state="o"/>
    <connection from="0/2to1/2" to="1/2to1/1" fromLane="0" toLane="0" via=":1/2_4_0" tl="1/2" linkIndex="4" dir="r" state="o"/>
    <connection from="0/2to1/2" to="1/2to2/2" fromLane="0" toLane="0" via=":1/2_5_0" tl="1/2" linkIndex="5" dir="s" state="o"/>
    <connection from="1/0to0/0" to="0/0to0/1" fromLane="0" toLane="0" via=":0/0_1_0" tl="0/0" linkIndex="1" dir="r" state="o"/>
    <connection from="1/0to1/1" to="1/1to2/1" fromLane="0" toLane="0" via=":1/1_6_0" tl="1/1" linkIndex="6" dir="r" state="o"/>
    <connection from="1/0to1/1" to="1/1to1/2" fromLane="0" toLane="0" via=":1/1_7_0" tl="1/1" linkIndex="7" dir="s" state="o"/>
    <connection from="1/0to1/1" to="1/1to0/1" fromLane="0" toLane="0" via=":1/1_8_0" tl="1/1" linkIndex="8" dir="l" state="o"/>
    <connection from="1/0to2/0" to="2/0to2/1" fromLane="0" toLane="0" via=":2/0_1_0" tl="2/0" linkIndex="1" dir="l" state="o"/>
    <connection from="1/1to0/1" to="0/1to0/2" fromLane="0" toLane="0" via=":0/1_2_0" tl="0/1" linkIndex="2" dir="r" state="o"/>
    <connection from="1/1to0/1" to="0/1to0/0" fromLane="0" toLane="0" via=":0/1_3_0" tl="0/1" linkIndex="3" dir="l" state="o"/>
    <connection from="1/1to1/0" to="1/0to0/0" fromLane="0" toLane="0" via=":1/0_0_0" tl="1/0" linkIndex="0" dir="r" state="o"/>
    <connection from="1/1to1/0" to="1/0to2/0" fromLane="0" toLane="0" via=":1/0_1_0" tl="1/0" linkIndex="1" dir="l" state="o"/>
    <connection from="1/1to1/2" to="1/2to2/2" fromLane="0" toLane="0" via=":1/2_2_0" tl="1/2" linkIndex="2" dir="r" state="o"/>
    <connection from="1/1to1/2" to="1/2to0/2" fromLane="0" toLane="0" via=":1/2_3_0" tl="1/2" linkIndex="3" dir="l" state="o"/>
    <connection from="1/1to2/1" to="2/1to2/0" fromLane="0" toLane="0" via=":2/1_4_0" tl="2/1" linkIndex="4" dir="r" state="o"/>
    <connection from="1/1to2/1" to="2/1to2/2" fromLane="0" toLane="0" via=":2/1_5_0" tl="2/1" linkIndex="5" dir="l" state="o"/>
    <connection from="1/2to0/2" to="0/2to0/1" fromLane="0" toLane="0" via=":0/2_0_0" tl="0/2" linkIndex="0" dir="l" state="o"/>
    <connection from="1/2to1/1" to="1/1to0/1" fromLane="0" toLane="0" via=":1/1_0_0" tl="1/1" linkIndex="0" dir="r" state="o"/>
    <connection from="1/2to1/1" to="1/1to1/0" fromLane="0" toLane="0" via=":1/1_1_0" tl="1/1" linkIndex="1" dir="s" state="o"/>
    <connection from="1/2to1/1" to="1/1to2/1" fromLane="0" toLane="0" via=":1/1_2_0" tl="1/1" linkIndex="2" dir="l" state="o"/>
    <connection from="1/2to2/2" to="2/2to2/1" fromLane="0" toLane="0" via=":2/2_1_0" tl="2/2" linkIndex="1" dir="r" state="o"/>
    <connection from="2/0to1/0" to="1/0to1/1" fromLane="0" toLane="0" via=":1/0_2_0" tl="1/0" linkIndex="2" dir="r" state="o"/>
    <connection from="2/0to1/0" to="1/0to0/0" fromLane="0" toLane="0" via=":1/0_3_0" tl="1/0" linkIndex="3" dir="s" state="o"/>
    <connection from="2/0to2/1" to="2/1to2/2" fromLane="0" toLane="0" via=":2/1_2_0" tl="2/1" linkIndex="2" dir="s" state="o"/>
    <connection from="2/0to2/1" to="2/1to1/1" fromLane="0" toLane="0" via=":2/1_3_0" tl="2/1" linkIndex="3" dir="l" state="o"/>