<?xml version="1.0"?>
<!-- generated on 2013-03-15 14:04:52.315400 by $Id: randomTrips.py 11671 2012-01-07 20:14:30Z behrisch $ -->
<trips>
    <trip id="t0" depart="0" from="2/1to2/2" to="0/1to1/1" />
    <trip id="t1" depart="1" from="1/1to2/1" to="1/0to0/0" />
    <trip id="t2" depart="2" from="0/2to1/2" to="1/1to2/1" />
    <trip id="t3" depart="3" from="2/2to1/2" to="0/2to0/1" />
    <trip id="t4" depart="4" from="2/0to2/1" to="0/1to0/0" />
    <trip id="t5" depart="5" from="1/0to1/1" to="0/0to1/0" />
    <trip id="t6" depart="6" from="1/1to2/1" to="1/2to1/1" />
    <trip id="t7" depart="7" from="0/0to1/0" to="1/2to2/2" />
    <trip id="t8" depart="8" from="0/0to1/0" to="0/1to0/0" />
    <trip id="t9" depart="9" from="0/1to0/0" to="1/1to0/1" />
    <trip id="t10" depart="10" from="2/2to1/2" to="1/2to1/1" />
    <trip id="t11" depart="11" from="1/2to2/2" to="1/2to0/2" />
    <trip id="t12" depart="12" from="2/1to1/1" to="1/1to0/1" />
    <trip id="t13" depart="13" from="1/2to0/2" to="1/1to2/1" />
    <trip id="t14" depart="14" from="2/1to2/0" to="1/2to2/2" />
    <trip id="t15" depart="15" from="1/2to0/2" to="0/0to1/0" />
    <trip id="t16" depart="16" from="0/1to1/1" to="2/0to2/1" />
    <trip id="t17" depart="17" from="1/1to0/1" to="0/0to0/1" />
    <trip id="t18" depart="18" from="1/2to2/2" to="0/2to1/2" />
    <trip id="t19" depart="19" from="1/1to2/1" to="2/0to2/1" />
    <trip id="t20" depart="20" from="2/2to1/2" to="2/0to1/0" />
    <trip id="t21" depart="21" from="1/2to0/2" to="0/0to1/0" />
    <trip id="t22" depart="22" from="0/2to1/2" to="1/0to0/0" />
    <trip id="t23" depart="23" from="2/1to2/2" to="0/0to1/0" />
    <trip id="t24" depart="24" from="2/1to2/2" to="0/1to0/2" />
    <trip id="t25" depart="25" from="1/0to2/0" to="0/0to1/0" />
    <trip id="t26" depart="26" from="1/1to0/1" to="0/2to0/1" />
    <trip id="t27" depart="27" from="0/2to1/2" to="2/1to2/2" />
    <trip id="t28" depart="28" from="2/0to2/1" to="1/0to1/1" />
    <trip id="t29" depart="29" from="1/1to2/1" to="1/2to2/2" />
    <trip id="t30" depart="30" from="1/2to1/1" to="1/0to0/0" />
    <trip id="t31" depart="31" from="1/0to1/1" to="2/1to2/2" />
    <trip id="t32" depart="32" from="1/2to1/1" to="1/0to2/0" />
    <trip id="t33" depart="33" from="2/1to2/0" to="1/0to2/0" />
    <trip id="t34" depart="34" from="2/0to1/0" to="0/0to0/1" />
    <trip id="t35" depart="35" from="1/0to1/1" to="2/2to1/2" />
    <trip id="t36" depart="36" from="2/1to2/0" to="1/0to0/0" />
    <trip id="t37" depart="37" from="1/0to1/1" to="1/1to1/2" />
    <trip id="t38" depart="38" from="1/0to1/1" to="2/1to2/0" />
    <trip id="t39" depart="39" from="1/0to0/0" to="1/1to1/0" />
    <trip id="t40" depart="40" from="0/1to0/2" to="0/0to0/1" />
    <trip id="t41" depart="41" from="2/0to1/0" to="2/2to2/1" />
    <trip id="t42" depart="42" from="0/1to0/0" to="0/1to0/0" />
    <trip id="t43" depart="43" from="2/0to1/0" to="1/2to2/2" />
    <trip id="t44" depart="44" from="0/0to1/0" to="1/0to1/1" />
    <trip id="t45" depart="45" from="0/1to1/1" to="1/1to0/1" />
    <trip id="t46" depart="46" from="1/1to0/1" to="2/0to2/1" />
    <trip id="t47" depart="47" from="0/2to0/1" to="1/0to0/0" />
    <trip id="t48" depart="48" from="0/1to0/2" to="2/1to2/2" />
    <trip id="t49" depart="49" from="1/1to0/1" to="0/2to0/1" />
    <trip id="t50" depart="50" from="2/1to2/2" to="0/1to1/1" />
    <trip id="t51" depart="51" from="0/1to0/2" to="2/1to1/1" />
    <trip id="t52" depart="52" from="2/1to2/2" to="1/0to1/1" />
    <trip id="t53" depart="53" from="2/2to1/2" to="0/1to0/0" />
    <trip id="t54" depart="54" from="1/0to2/0" to="0/0to0/1" />
    <trip id="t55" depart="55" from="0/1to1/1" to="2/0to2/1" />
    <trip id="t56" depart="56" from="0/2to0/1" to="1/0to2/0" />
    <trip id="t57" depart="57" from="0/1to0/0" to="0/2to1/2" />
    <trip id="t58" depart="58" from="0/2to1/2" to="1/2to0/2" />
    <trip id="t59" depart="59" from="2/2to2/1" to="1/1to2/1" />
    <trip id="t60" depart="60" from="0/2to1/2" to="1/0to0/0" />
    <trip id="t61" depart="61" from="1/0to1/1" to="1/1to0/1" />
    <trip id="t62" depart="62" from="0/1to1/1" to="2/2to1/2" />
    <trip id="t63" depart="63" from="0/0to0/1" to="1/1to2/1" />
    <trip id="t64" depart="64" from="0/1to1/1" to="1/2to0/2" />
    <trip id="t65" depart="65" from="0/0to0/1" to="1/2to0/2" />
    <trip id="t66" depart="66" from="1/0to1/1" to="0/1to0/2" />
    <trip id="t67" depart="67" from="1/2to1/1" to="1/0to2/0" />
    <trip id="t68" depart="68" from="2/1to2/0" to="1/2to1/1" />
    <trip id="t69" depart="69" from="0/2to0/1" to="2/0to1/0" />
    <trip id="t70" depart="70" from="1/0to1/1" to="0/0to1/0" />
    <trip id="t71" depart="71" from="2/1to1/1" to="0/1to1/1" />
    <trip id="t72" depart="72" from="0/0to1/0" to="1/0to2/0" />
    <trip id="t73" depart="73" from="1/0to2/0" to="1/2to0/2" />
    <trip id="t74" depart="74" from="0/0to0/1" to="0/1to1/1" />
    <trip id="t75" depart="75" from="0/0to0/1" to="2/1to2/0" />
    <trip id="t76" depart="76" from="1/0to0/0" to="2/2to2/1" />
    <trip id="t77" depart="77" from="2/2to2/1" to="1/1to0/1" />
    <trip id="t78" depart="78" from="0/1to0/0" to="1/0to0/0" />
    <trip id="t79" depart="79" from="0/1to0/0" to="1/2to2/2" />
    <trip id="t80" depart="80" from="1/1to1/2" to="1/0to0/0" />
    <trip id="t81" depart="81" from="0/0to0/1" to="2/2to2/1" />
    <trip id="t82" depart="82" from="0/2to0/1" to="1/0to0/0" />
    <trip id="t83" depart="83" from="1/1to0/1" to="1/2to1/1" />
    <trip id="t84" depart="84" from="0/1to0/2" to="0/0to1/0" />
    <trip id="t85" depart="85" from="2/1to2/0" to="2/1to1/1" />
    <trip id="t86" depart="86" from="0/1to0/2" to="0/1to1/1" />
    <trip id="t87" depart="87" from="0/2to0/1" to="1/2to0/2" />
    <trip id="t88" depart="88" from="2/1to2/2" to="1/1to1/2" />
    <trip id="t89" depart="89" from="0/0to1/0" to="1/1to2/1" />
    <trip id="t90" depart="90" from="2/0to2/1" to="1/2to0/2" />
    <trip id="t91" depart="91" from="1/2to1/1" to="1/0to2/0" />
    <trip id="t92" depart="92" from="2/1to1/1" to="1/1to1/2" />
    <trip id="t93" depart="93" from="2/2to2/1" to="1/1to1/2" />
    <trip id="t94" depart="94" from="0/2to0/1" to="0/0to1/0" />
    <trip id="t95" depart="95" from="1/1to2/1" to="2/1to2/2" />
    <trip id="t96" depart="96" from="1/0to0/0" to="2/0to2/1" />
    <trip id="t97" depart="97" from="1/1to2/1" to="1/0to2/0" />
    <trip id="t98" depart="98" from="1/0to0/0" to="2/1to2/2" />
    <trip id="t99" depart="99" from="1/0to1/1" to="2/2to1/2" />
    <trip id="t100" depart="100" from="2/2to1/2" to="2/2to1/2" />
    <trip id="t101" depart="101" from="1/2to0/2" to="0/2to1/2" />
    <trip id="t102" depart="102" from="2/1to1/1" to="2/1to2/0" />
    <trip id="t103" depart="103" from="2/1to1/1" to="0/1to0/0" />
    <trip id="t104" depart="104" from="2/2to1/2" to="1/1to0/1" />
    <trip id="t105" depart="105" from="2/2to1/2" to="0/2to0/1" />
    <trip id="t106" depart="106" from="1/0to1/1" to="1/1to2/1" />
    <trip id="t107" depart="107" from="2/0to1/0" to="1/1to2/1" />
    <trip id="t108" depart="108" from="1/0to1/1" to="2/2to1/2" />
    <trip id="t109" depart="109" from="1/1to2/1" to="0/2to0/1" />
    <trip id="t110" depart="110" from="1/2to1/1" to="1/0to2/0" />
    <trip id="t111" depart="111" from="1/0to2/0" to="1/0to1/1" />
    <trip id="t112" depart="112" from="1/1to1/2" to="0/1to0/2" />
    <trip id="t113" depart="113" from="2/1to2/2" to="0/0to0/1" />
    <trip id="t114" depart="114" from="2/1to1/1" to="1/1to1/0" />
    <trip id="t115" depart="115" from="1/0to1/1" to="1/2to0/2" />
    <trip id="t116" depart="116" from="0/1to0/2" to="2/1to1/1" />
    <trip id="t117" depart="117" from="0/1to1/1" to="1/1to2/1" />
    <trip id="t118" depart="118" from="1/1to0/1" to="1/1to0/1" />
    <trip id="t119" depart="119" from="2/0to1/0" to="1/2to1/1" />
    <trip id="t120" depart="120" from="0/2to0/1" to="1/0to0/0" />
    <trip id="t121" depart="121" from="0/2to1/2" to="1/2to1/1" />
    <trip id="t122" depart="122" from="1/0to0/0" to="0/2to1/2" />
    <trip id="t123" depart="123" from="0/2to1/2" to="2/0to1/0" />
    <trip id="t124" depart="124" from="2/2to2/1" to="2/2to1/2" />
    <trip id="t125" depart="125" from="0/1to0/2" to="2/0to1/0" />
    <trip id="t126" depart="126" from="1/1to0/1" to="1/0to1/1" />
    <trip id="t127" depart="127" from="0/0to0/1" to="1/1to1/0" />
    <trip id="t128" depart="128" from="1/2to0/2" to="0/2to0/1" />
    <trip id="t129" depart="129" from="1/0to2/0" to="1/2to2/2" />
    <trip id="t130" depart="130" from="0/1to1/1" to="1/2to1/1" />
    <trip id="t131" depart="131" from="2/1to1/1" to="1/2to2/2" />
    <trip id="t132" depart="132" from="1/1to2/1" to="0/0to0/1" />
    <trip id="t133" depart="133" from="1/2to0/2" to="1/0to1/1" />
    <trip id="t134" depart="134" from="0/0to0/1" to="1/0to0/0" />
    <trip id="t135" depart="135" from="1/0to1/1" to="1/1to0/1" />
    <trip id="t136" depart="136" from="2/1to2/2" to="1/0to0/0" />
    <trip id="t137" depart="137" from="1/1to1/0" to="0/0to1/0" />
    <trip id="t138" depart="138" from="0/2to0/1" to="1/1to1/0" />
    <trip id="t139" depart="139" from="0/1to0/0" to="1/0to1/1" />
    <trip id="t140" depart="140" from="0/1to1/1" to="2/1to2/0" />
    <trip id="t141" depart="141" from="1/1to2/1" to="0/1to0/2" />
    <trip id="t142" depart="142" from="1/0to0/0" to="1/0to0/0" />
    <trip id="t143" depart="143" from="2/1to2/0" to="1/0to2/0" />
    <trip id="t144" depart="144" from="1/0to1/1" to="1/1to2/1" />
    <trip id="t145" depart="145" from="0/0to0/1" to="1/0to2/0" />
    <trip id="t146" depart="146" from="2/0to1/0" to="0/1to0/0" />
    <trip id="t147" depart="147" from="1/2to1/1" to="1/2to2/2" />
    <trip id="t148" depart="148" from="1/1to0/1" to="1/0to1/1" />
    <trip id="t149" depart="149" from="1/2to0/2" to="1/0to2/0" />
    <trip id="t150" depart="150" from="0/0to0/1" to="2/2to2/1" />
    <trip id="t151" depart="151" from="1/2to0/2" to="1/2to0/2" />
    <trip id="t152" depart="152" from="2/0to1/0" to="1/0to0/0" />
    <trip id="t153" depart="153" from="0/1to1/1" to="2/1to2/0" />
    <trip id="t154" depart="154" from="2/2to1/2" to="1/1to0/1" />
    <trip id="t155" depart="155" from="2/2to1/2" to="1/1to2/1" />
    <trip id="t156" depart="156" from="2/2to1/2" to="1/0to2/0" />
    <trip id="t157" depart="157" from="0/0to0/1" to="0/1to0/2" />
    <trip id="t158" depart="158" from="2/1to1/1" to="1/2to0/2" />
    <trip id="t159" depart="159" from="1/2to0/2" to="0/1to0/0" />
    <trip id="t160" depart="160" from="1/1to2/1" to="1/2to2/2" />
    <trip id="t161" depart="161" from="0/2to0/1" to="0/2to0/1" />
    <trip id="t162" depart="162" from="1/0to1/1" to="2/1to2/0" />
    <trip id="t163" depart="163" from="0/2to1/2" to="2/0to2/1" />
    <trip id="t164" depart="164" from="1/0to2/0" to="1/0to1/1" />
    <trip id="t165" depart="165" from="2/2to1/2" to="1/1to1/0" />
    <trip id="t166" depart="166" from="2/1to1/1" to="2/0to2/1" />
    <trip id="t167" depart="167" from="0/0to0/1" to="0/0to0/1" />
    <trip id="t168" depart="168" from="1/1to0/1" to="1/1to0/1" />
    <trip id="t169" depart="169" from="1/0to1/1" to="1/1to1/0" />
    <trip id="t170" depart="170" from="2/1to1/1" to="0/1to0/2" />
    <trip id="t171" depart="171" from="1/2to2/2" to="1/0to0/0" />
    <trip id="t172" depart="172" from="0/1to0/2" to="2/1to2/0" />
    <trip id="t173" depart="173" from="2/2to2/1" to="2/1to2/2" />
    <trip id="t174" depart="174" from="1/0to2/0" to="1/1to1/2" />
    <trip id="t175" depart="175" from="1/2to0/2" to="2/0to1/0" />
    <trip id="t176" depart="176" from="2/1to1/1" to="0/2to0/1" />
    <trip id="t177" depart="177" from="0/0to1/0" to="1/2to1/1" />
    <trip id="t178" depart="178" from="1/2to1/1" to="1/2to2/2" />
    <trip id="t179" depart="179" from="1/2to2/2" to="1/0to0/0" />
    <trip id="t180" depart="180" from="2/2to2/1" to="2/1to1/1" />
    <trip id="t181" depart="181" from="1/0to2/0" to="1/2to0/2" />
    <trip id="t182" depart="182" from="0/1to1/1" to="0/1to1/1" />
    <trip id="t183" depart="183" from="2/1to2/0" to="2/2to2/1" />
    <trip id="t184" depart="184" from="1/1to1/2" to="1/1to1/0" />
    <trip id="t185" depart="185" from="1/1to1/0" to="0/1to0/2" />
    <trip id="t186" depart="186" from="1/1to2/1" to="1/1to2/1" />
    <trip id="t187" depart="187" from="1/1to1/0" to="2/0to2/1" />
    <trip id="t188" depart="188" from="1/0to1/1" to="1/1to1/2" />
    <trip id="t189" depart="189" from="2/1to2/2" to="1/1to0/1" />
    <trip id="t190" depart="190" from="2/0to1/0" to="1/1to1/2" />
    <trip id="t191" depart="191" from="2/1to2/0" to="1/1to1/0" />
    <trip id="t192" depart="192" from="1/1to1/0" to="0/1to0/2" />
    <trip id="t193" depart="193" from="1/0to1/1" to="1/2to1/1" />
    <trip id="t194" depart="194" from="2/1to2/0" to="2/1to2/0" />
    <trip id="t195" depart="195" from="1/2to1/1" to="1/2to1/1" />
    <trip id="t196" depart="196" from="0/2to0/1" to="0/1to0/2" />
    <trip id="t197" depart="197" from="0/1to0/2" to="2/0to2/1" />
    <trip id="t198" depart="198" from="1/0to2/0" to="1/1to2/1" />
    <trip id="t199" depart="199" from="1/1to1/0" to="0/1to0/0" />
    <trip id="t200" depart="200" from="1/0to2/0" to="1/0to1/1" />
    <trip id="t201" depart="201" from="1/1to2/1" to="1/1to2/1" />
    <trip id="t202" depart="202" from="1/0to0/0" to="1/1to2/1" />
    <trip id="t203" depart="203" from="1/1to1/0" to="2/2to1/2" />
    <trip id="t204" depart="204" from="1/0to1/1" to="2/2to2/1" />
    <trip id="t205" depart="205" from="1/0to0/0" to="2/0to2/1" />
    <trip id="t206" depart="206" from="1/2to2/2" to="1/1to1/2" />
    <trip id="t207" depart="207" from="0/2to0/1" to="2/2to1/2" />
    <trip id="t208" depart="208" from="2/0to1/0" to="2/2to1/2" />
    <trip id="t209" depart="209" from="0/0to1/0" to="1/2to0/2" />
    <trip id="t210" depart="210" from="1/2to1/1" to="0/1to1/1" />
    <trip id="t211" depart="211" from="1/2to1/1" to="1/1to1/0" />
    <trip id="t212" depart="212" from="0/2to1/2" to="0/2to1/2" />
    <trip id="t213" depart="213" from="2/2to1/2" to="0/2to0/1" />
    <trip id="t214" depart="214" from="0/2to1/2" to="2/1to1/1" />
    <trip id="t215" depart="215" from="0/2to0/1" to="1/2to2/2" />
    <trip id="t216" depart="216" from="0/1to0/2" to="1/2to0/2" />
    <trip id="t217" depart="217" from="2/2to1/2" to="0/1to0/0" />
    <trip id="t218" depart="218" from="0/1to0/2" to="0/2to1/2" />
    <trip id="t219" depart="219" from="0/0to0/1" to="1/1to2/1" />
    <trip id="t220" depart="220" from="1/2to0/2" to="1/1to0/1" />
    <trip id="t221" depart="221" from="2/1to1/1" to="2/0to2/1" />
    <trip id="t222" depart="222" from="1/2to2/2" to="0/0to1/0" />
    <trip id="t223" depart="223" from="1/1to1/0" to="0/0to0/1" />
    <trip id="t224" depart="224" from="2/1to2/2" to="2/1to2/2" />
    <trip id="t225" depart="225" from="1/0to2/0" to="2/0to1/0" />
    <trip id="t226" depart="226" from="1/0to2/0" to="1/0to2/0" />
    <trip id="t227" depart="227" from="2/0to1/0" to="0/0to0/1" />
    <trip id="t228" depart="228" from="0/1to1/1" to="1/2to2/2" />
    <trip id="t229" depart="229" from="1/0to2/0" to="1/1to2/1" />
    <trip id="t230" depart="230" from="2/0to2/1" to="2/0to1/0" />
    <trip id="t231" depart="231" from="1/2to2/2" to="0/2to1/2" />
    <trip id="t232" depart="232" from="1/1to1/0" to="0/1to0/2" />
    <trip id="t233" depart="233" from="2/2to2/1" to="1/0to1/1" />
    <trip id="t234" depart="234" from="1/1to0/1" to="1/2to1/1" />
    <trip id="t235" depart="235" from="1/2to1/1" to="0/0to1/0" />
    <trip id="t236" depart="236" from="1/1to2/1" to="1/2to2/2" />
    <trip id="t237" depart="237" from="1/0to0/0" to="1/1to2/1" />
    <trip id="t238" depart="238" from="2/0to2/1" to="2/0to1/0" />
    <trip id="t239" depart="239" from="1/2to2/2" to="1/0to1/1" />
    <trip id="t240" depart="240" from="0/1to0/2" to="2/1to2/0" />
    <trip id="t241" depart="241" from="1/1to1/2" to="2/1to2/2" />
    <trip id="t242" depart="242" from="0/1to0/0" to="1/0to2/0" />
    <trip id="t243" depart="243" from="2/2to2/1" to="0/1to0/0" />
    <trip id="t244" depart="244" from="1/0to1/1" to="0/2to0/1" />
    <trip id="t245" depart="245" from="1/1to2/1" to="2/1to1/1" />
    <trip id="t246" depart="246" from="0/1to1/1" to="1/2to1/1" />
    <trip id="t247" depart="247" from="1/2to2/2" to="0/0to1/0" />
    <trip id="t248" depart="248" from="0/1to1/1" to="2/2to2/1" />
    <trip id="t249" depart="249" from="1/1to1/0" to="0/2to1/2" />
    <trip id="t250" depart="250" from="1/0to2/0" to="2/1to1/1" />
    <trip id="t251" depart="251" from="0/1to1/1" to="0/2to0/1" />
    <trip id="t252" depart="252" from="1/1to1/2" to="1/0to2/0" />
    <trip id="t253" depart="253" from="2/0to1/0" to="2/2to2/1" />
    <trip id="t254" depart="254" from="0/0to1/0" to="0/1to1/1" />
    <trip id="t255" depart="255" from="0/1to0/2" to="1/1to0/1" />
    <trip id="t256" depart="256" from="1/0to0/0" to="1/1to1/0" />
    <trip id="t257" depart="257" from="1/2to2/2" to="1/0to1/1" />
    <trip id="t258" depart="258" from="1/1to0/1" to="1/1to1/2" />
    <trip id="t259" depart="259" from="0/0to1/0" to="1/1to1/0" />
    <trip id="t260" depart="260" from="2/2to2/1" to="1/0to1/1" />
    <trip id="t261" depart="261" from="1/2to0/2" to="1/2to1/1" />
    <trip id="t262" depart="262" from="1/0to1/1" to="2/1to2/0" />
    <trip id="t263" depart="263" from="2/1to1/1" to="2/1to1/1" />
    <trip id="t264" depart="264" from="2/1to2/2" to="0/0to1/0" />
    <trip id="t265" depart="265" from="2/1to2/0" to="0/0to0/1" />
    <trip id="t266" depart="266" from="2/2to1/2" to="1/0to2/0" />
    <trip id="t267" depart="267" from="1/2to0/2" to="0/1to0/2" />
    <trip id="t268" depart="268" from="0/2to0/1" to="1/2to0/2" />
    <trip id="t269" depart="269" from="1/2to0/2" to="2/1to2/2" />
    <trip id="t270" depart="270" from="0/1to1/1" to="0/1to0/0" />
    <trip id="t271" depart="271" from="1/2to0/2" to="0/1to1/1" />
    <trip id="t272" depart="272" from="2/1to1/1" to="2/0to2/1" />
    <trip id="t273" depart="273" from="0/0to0/1" to="0/0to1/0" />
    <trip id="t274" depart="274" from="2/1to1/1" to="2/2to2/1" />
    <trip id="t275" depart="275" from="2/1to2/2" to="2/2to1/2" />
    <trip id="t276" depart="276" from="2/0to1/0" to="1/1to2/1" />
    <trip id="t277" depart="277" from="2/2to1/2" to="2/2to2/1" />
    <trip id="t278" depart="278" from="2/2to1/2" to="2/1to1/1" />
    <trip id="t279" depart="279" from="1/2to1/1" to="0/2to1/2" />
    <trip id="t280" depart="280" from="1/2to0/2" to="1/1to1/0" />
    <trip id="t281" depart="281" from="0/0to0/1" to="1/2to1/1" />
    <trip id="t282" depart="282" from="1/0to0/0" to="2/2to2/1" />
    <trip id="t283" depart="283" from="1/1to0/1" to="1/0to0/0" />
    <trip id="t284" depart="284" from="0/2to1/2" to="2/2to1/2" />
    <trip id="t285" depart="285" from="1/0to2/0" to="2/1to2/2" />
    <trip id="t286" depart="286" from="1/1to1/2" to="1/1to1/0" />
    <trip id="t287" depart="287" from="2/2to2/1" to="0/1to0/2" />
    <trip id="t288" depart="288" from="1/2to0/2" to="1/1to0/1" />
    <trip id="t289" depart="289" from="1/1to2/1" to="0/0to0/1" />
    <trip id="t290" depart="290" from="0/0to1/0" to="0/1to0/0" />
    <trip id="t291" depart="291" from="2/0to1/0" to="0/2to0/1" />
    <trip id="t292" depart="292" from="1/2to2/2" to="2/0to1/0" />
    <trip id="t293" depart="293" from="0/1to0/2" to="2/1to2/0" />
    <trip id="t294" depart="294" from="2/2to2/1" to="2/1to1/1" />
    <trip id="t295" depart="295" from="2/0to2/1" to="2/1to1/1" />
    <trip id="t296" depart="296" from="2/1to2/2" to="0/2to0/1" />
    <trip id="t297" depart="297" from="1/1to1/0" to="0/1to0/2" />
    <trip id="t298" depart="298" from="1/1to1/0" to="0/2to1/2" />
    <trip id="t299" depart="299" from="2/0to1/0" to="2/1to1/1" />
    <trip id="t300" depart="300" from="2/1to1/1" to="2/2to2/1" />
    <trip id="t301" depart="301" from="1/2to2/2" to="0/1to0/2" />
    <trip id="t302" depart="302" from="2/2to1/2" to="1/2to2/2" />
    <trip id="t303" depart="303" from="1/1to1/2" to="0/2to1/2" />
    <trip id="t304" depart="304" from="1/2to1/1" to="0/1to0/2" />
    <trip id="t305" depart="305" from="0/0to0/1" to="0/0to0/1" />
    <trip id="t306" depart="306" from="2/1to2/2" to="2/0to2/1" />
    <trip id="t307" depart="307" from="2/1to1/1" to="0/2to1/2" />
    <trip id="t308" depart="308" from="2/1to1/1" to="2/1to2/2" />
    <trip id="t309" depart="309" from="1/1to1/0" to="1/0to1/1" />
    <trip id="t310" depart="310" from="1/2to0/2" to="2/1to2/0" />
    <trip id="t311" depart="311" from="1/2to0/2" to="2/2to2/1" />
    <trip id="t312" depart="312" from="0/2to1/2" to="0/2to1/2" />
    <trip id="t313" depart="313" from="0/1to0/2" to="1/0to0/0" />
    <trip id="t314" depart="314" from="0/1to0/0" to="1/1to2/1" />
    <trip id="t315" depart="315" from="1/0to1/1" to="1/1to1/2" />
    <trip id="t316" depart="316" from="2/0to2/1" to="1/0to0/0" />
    <trip id="t317" depart="317" from="2/1to1/1" to="1/2to0/2" />
    <trip id="t318" depart="318" from="2/0to1/0" to="1/1to1/0" />
    <trip id="t319" depart="319" from="2/2to1/2" to="1/2to1/1" />
    <trip id="t320" depart="320" from="0/0to1/0" to="1/2to0/2" />
    <trip id="t321" depart="321" from="2/2to1/2" to="2/1to2/0" />
    <trip id="t322" depart="322" from="2/1to2/0" to="0/2to0/1" />
    <trip id="t323" depart="323" from="2/1to2/2" to="1/1to0/1" />
    <trip id="t324" depart="324" from="0/0to1/0" to="0/0to1/0" />
    <trip id="t325" depart="325" from="0/0to1/0" to="1/2to1/1" />
    <trip id="t326" depart="326" from="1/1to2/1" to="0/0to0/1" />
    <trip id="t327" depart="327" from="0/1to0/2" to="0/0to0/1" />
    <trip id="t328" depart="328" from="2/1to2/0" to="2/2to1/2" />
    <trip id="t329" depart="329" from="1/0to1/1" to="0/1to1/1" />
    <trip id="t330" depart="330" from="2/1to2/0" to="2/1to2/2" />
    <trip id="t331" depart="331" from="1/1to1/2" to="2/2to2/1" />
    <trip id="t332" depart="332" from="0/2to1/2" to="1/1to0/1" />
    <trip id="t333" depart="333" from="2/2to1/2" to="1/1to1/2" />
    <trip id="t334" depart="334" from="2/1to2/0" to="1/2to0/2" />
    <trip id="t335" depart="335" from="1/2to2/2" to="0/1to1/1" />
    <trip id="t336" depart="336" from="1/2to1/1" to="2/1to2/2" />
    <trip id="t337" depart="337" from="0/1to1/1" to="0/0to0/1" />
    <trip id="t338" depart="338" from="1/2to0/2" to="1/1to2/1" />
    <trip id="t339" depart="339" from="1/0to0/0" to="1/0to0/0" />
    <trip id="t340" depart="340" from="0/1to0/2" to="0/1to0/2" />
    <trip id="t341" depart="341" from="0/1to1/1" to="1/1to1/0" />
    <trip id="t342" depart="342" from="1/0to0/0" to="2/2to2/1" />
    <trip id="t343" depart="343" from="1/1to1/2" to="2/1to1/1" />
    <trip id="t344" depart="344" from="0/2to1/2" to="0/1to0/0" />
    <trip id="t345" depart="345" from="0/2to1/2" to="0/0to1/0" />
    <trip id="t346" depart="346" from="1/1to1/0" to="1/0to2/0" />
    <trip id="t347" depart="347" from="1/0to1/1" to="2/2to2/1" />
    <trip id="t348" depart="348" from="1/1to1/2" to="0/1to1/1" />
    <trip id="t349" depart="349" from="1/1to2/1" to="1/2to2/2" />
    <trip id="t350" depart="350" from="1/2to2/2" to="0/2to0/1" />
    <trip id="t351" depart="351" from="2/0to2/1" to="0/0to0/1" />
    <trip id="t352" depart="352" from="2/0to1/0" to="0/0to0/1" />
    <trip id="t353" depart="353" from="1/1to0/1" to="2/0to1/0" />
    <trip id="t354" depart="354" from="1/1to1/2" to="1/1to1/2" />
    <trip id="t355" depart="355" from="1/0to0/0" to="2/1to1/1" />
    <trip id="t356" depart="356" from="0/0to1/0" to="1/2to0/2" />
    <trip id="t357" depart="357" from="0/2to0/1" to="0/2to0/1" />
    <trip id="t358" depart="358" from="2/0to2/1" to="2/1to2/2" />
    <trip id="t359" depart="359" from="0/0to0/1" to="1/2to1/1" />
    <trip id="t360" depart="360" from="0/1to1/1" to="1/1to2/1" />
    <trip id="t361" depart="361" from="0/2to0/1" to="1/1to1/2" />
    <trip id="t362" depart="362" from="0/2to1/2" to="1/1to0/1" />
    <trip id="t363" depart="363" from="0/0to0/1" to="2/2to2/1" />
    <trip id="t364" depart="364" from="2/1to1/1" to="1/1to2/1" />
    <trip id="t365" depart="365" from="0/0to1/0" to="1/2to2/2" />
    <trip id="t366" depart="366" from="0/1to1/1" to="1/0to2/0" />
    <trip id="t367" depart="367" from="0/1to1/1" to="0/1to1/1" />
    <trip id="t368" depart="368" from="0/1to1/1" to="2/1to2/2" />
    <trip id="t369" depart="369" from="1/0to1/1" to="2/1to2/0" />
    <trip id="t370" depart="370" from="0/0to0/1" to="1/2to2/2" />
    <trip id="t371" depart="371" from="1/2to2/2" to="1/2to1/1" />
    <trip id="t372" depart="372" from="1/2to2/2" to="0/1to0/2" />
    <trip id="t373" depart="373" from="0/1to1/1" to="2/2to1/2" />
    <trip id="t374" depart="374" from="2/2to1/2" to="2/1to2/0" />
    <trip id="t375" depart="375" from="2/0to2/1" to="0/0to1/0" />
    <trip id="t376" depart="376" from="2/1to1/1" to="2/1to2/0" />
    <trip id="t377" depart="377" from="1/0to1/1" to="0/0to0/1" />
    <trip id="t378" depart="378" from="2/0to2/1" to="2/0to2/1" />
    <trip id="t379" depart="379" from="2/0to1/0" to="1/2to1/1" />
    <trip id="t380" depart="380" from="0/1to0/2" to="2/1to2/0" />
    <trip id="t381" depart="381" from="1/0to0/0" to="1/2to0/2" />
    <trip id="t382" depart="382" from="1/1to1/0" to="0/0to0/1" />
    <trip id="t383" depart="383" from="0/1to0/0" to="1/1to0/1" />
    <trip id="t384" depart="384" from="0/1to0/0" to="2/1to2/2" />
    <trip id="t385" depart="385" from="1/0to2/0" to="2/0to1/0" />
    <trip id="t386" depart="386" from="2/0to1/0" to="1/2to1/1" />
    <trip id="t387" depart="387" from="1/1to0/1" to="0/1to0/2" />
    <trip id="t388" depart="388" from="1/1to2/1" to="0/2to0/1" />
    <trip id="t389" depart="389" from="0/0to0/1" to="2/2to1/2" />
    <trip id="t390" depart="390" from="2/2to1/2" to="1/2to1/1" />
    <trip id="t391" depart="391" from="2/2to1/2" to="1/1to0/1" />
    <trip id="t392" depart="392" from="0/1to1/1" to="1/2to1/1" />
    <trip id="t393" depart="393" from="2/2to1/2" to="2/1to2/0" />
    <trip id="t394" depart="394" from="2/0to1/0" to="0/0to0/1" />
    <trip id="t395" depart="395" from="2/1to2/0" to="0/2to0/1" />
    <trip id="t396" depart="396" from="1/0to2/0" to="1/0to2/0" />
    <trip id="t397" depart="397" from="0/1to1/1" to="0/0to1/0" />
    <trip id="t398" depart="398" from="1/0to2/0" to="0/1to1/1" />
    <trip id="t399" depart="399" from="1/1to1/0" to="0/2to1/2" />
    <trip id="t400" depart="400" from="0/2to1/2" to="0/2to1/2" />
    <trip id="t401" depart="401" from="1/0to2/0" to="0/0to0/1" />
    <trip id="t402" depart="402" from="1/1to0/1" to="2/0to2/1" />
    <trip id="t403" depart="403" from="1/1to0/1" to="1/0to0/0" />
    <trip id="t404" depart="404" from="2/2to1/2" to="1/1to1/2" />
    <trip id="t405" depart="405" from="2/1to1/1" to="2/1to2/2" />
    <trip id="t406" depart="406" from="0/1to0/0" to="0/0to1/0" />
    <trip id="t407" depart="407" from="1/0to1/1" to="1/2to2/2" />
    <trip id="t408" depart="408" from="0/2to1/2" to="0/0to0/1" />
    <trip id="t409" depart="409" from="0/1to0/0" to="0/1to1/1" />
    <trip id="t410" depart="410" from="2/0to1/0" to="1/0to0/0" />
    <trip id="t411" depart="411" from="2/1to2/2" to="1/2to0/2" />
    <trip id="t412" depart="412" from="1/1to2/1" to="0/2to1/2" />
    <trip id="t413" depart="413" from="2/0to1/0" to="2/1to2/2" />
    <trip id="t414" depart="414" from="1/1to1/2" to="1/1to2/1" />
    <trip id="t415" depart="415" from="2/1to2/2" to="1/1to0/1" />
    <trip id="t416" depart="416" from="1/0to1/1" to="0/1to0/0" />
    <trip id="t417" depart="417" from="0/0to1/0" to="1/0to0/0" />
    <trip id="t418" depart="418" from="0/1to0/0" to="0/0to1/0" />
    <trip id="t419" depart="419" from="2/1to2/0" to="2/1to2/2" />
    <trip id="t420" depart="420" from="0/1to0/0" to="0/1to0/2" />
    <trip id="t421" depart="421" from="2/0to1/0" to="1/0to0/0" />
    <trip id="t422" depart="422" from="0/2to1/2" to="0/2to1/2" />
    <trip id="t423" depart="423" from="1/2to0/2" to="1/1to1/0" />
    <trip id="t424" depart="424" from="1/1to1/0" to="1/2to0/2" />
    <trip id="t425" depart="425" from="2/0to2/1" to="0/1to1/1" />
    <trip id="t426" depart="426" from="1/1to0/1" to="0/1to1/1" />
    <trip id="t427" depart="427" from="0/1to1/1" to="1/0to0/0" />
    <trip id="t428" depart="428" from="2/0to2/1" to="2/0to2/1" />
    <trip id="t429" depart="429" from="0/2to1/2" to="2/1to2/2" />
    <trip id="t430" depart="430" from="0/1to1/1" to="1/2to0/2" />
    <trip id="t431" depart="431" from="0/1to0/2" to="0/0to1/0" />
    <trip id="t432" depart="432" from="1/0to0/0" to="0/2to1/2" />
    <trip id="t433" depart="433" from="0/2to1/2" to="0/0to1/0" />
    <trip id="t434" depart="434" from="0/1to1/1" to="1/0to1/1" />
    <trip id="t435" depart="435" from="1/2to0/2" to="1/1to2/1" />
    <trip id="t436" depart="436" from="0/0to0/1" to="2/0to2/1" />
    <trip id="t437" depart="437" from="1/2to0/2" to="2/1to2/0" />
    <trip id="t438" depart="438" from="2/0to1/0" to="1/2to2/2" />
    <trip id="t439" depart="439" from="0/2to0/1" to="1/1to1/0" />
    <trip id="t440" depart="440" from="1/2to0/2" to="2/1to2/2" />
    <trip id="t441" depart="441" from="1/2to0/2" to="0/0to0/1" />
    <trip id="t442" depart="442" from="2/2to2/1" to="2/1to1/1" />
    <trip id="t443" depart="443" from="1/1to1/0" to="1/1to1/2" />
    <trip id="t444" depart="444" from="1/1to0/1" to="2/1to2/2" />
    <trip id="t445" depart="445" from="2/0to1/0" to="0/2to1/2" />
    <trip id="t446" depart="446" from="2/0to1/0" to="0/1to0/0" />
    <trip id="t447" depart="447" from="1/1to1/0" to="1/2to2/2" />
    <trip id="t448" depart="448" from="1/1to1/0" to="2/2to1/2" />
    <trip id="t449" depart="449" from="0/2to1/2" to="2/1to1/1" />
    <trip id="t450" depart="450" from="2/0to1/0" to="1/1to0/1" />
    <trip id="t451" depart="451" from="1/1to2/1" to="1/2to1/1" />
    <trip id="t452" depart="452" from="2/2to2/1" to="1/2to2/2" />
    <trip id="t453" depart="453" from="0/1to1/1" to="0/1to1/1" />
    <trip id="t454" depart="454" from="1/0to2/0" to="2/2to2/1" />